Circuit: * E:\data\projects\nmWaveInterferometerSVN\Electronics\control_board_v2.0\Simulation_LDCurrentReg\LDCurrentReg.asc

Warning: Multiple definitions of model "2scr375p" Type: BJT
Warning: Multiple definitions of model "bc857b" Type: BJT
Warning: Multiple definitions of model "bc847c" Type: BJT
Warning: Multiple definitions of model "bc847b" Type: BJT
Direct Newton iteration for .op point succeeded.

Date: Thu Apr 24 10:43:08 2025
Total elapsed time: 0.064 seconds.

tnom = 27
temp = 27
method = modified trap
totiter = 8903
traniter = 8869
tranpoints = 4321
accept = 2760
rejected = 1561
matrix size = 15
fillins = 6
solver = Normal
Avg thread counts: 1.2/1.3/1.3/1.2
Matrix Compiler1: 1.34 KB object code size  0.3/0.2/[0.2]
Matrix Compiler2: 1.31 KB object code size  0.2/0.1/[0.1]

